# DIS package for MODFLOW-2005 generated by Flopy 3.3.5
        40        30        30         1         1         2
  0  0  0  0  0  0  0  0  0  0  0  0  0  0  0  0  0  0  0  0  0  0  0  0  0  0  0  0  0  0  0  0  0  0  0  0  0  0  0  0
INTERNAL               1  (30E15.6) -1 #delr                          
   2.500000E-03   5.737335E-04   7.054016E-04   8.672866E-04   1.066323E-03   1.311037E-03   1.611912E-03   1.981835E-03   2.436653E-03   2.995849E-03   3.683376E-03   4.528687E-03   5.567991E-03   6.845808E-03   8.416876E-03   1.034849E-02   1.272340E-02   1.564334E-02   1.923339E-02   2.364732E-02   2.907423E-02   3.574657E-02   4.395017E-02   5.403645E-02   6.643745E-02   8.168441E-02   1.004305E-01   1.234786E-01   1.518161E-01   1.866569E-01
INTERNAL               1  (30E15.6) -1 #delc                          
   2.500000E-03   5.737335E-04   7.054016E-04   8.672866E-04   1.066323E-03   1.311037E-03   1.611912E-03   1.981835E-03   2.436653E-03   2.995849E-03   3.683376E-03   4.528687E-03   5.567991E-03   6.845808E-03   8.416876E-03   1.034849E-02   1.272340E-02   1.564334E-02   1.923339E-02   2.364732E-02   2.907423E-02   3.574657E-02   4.395017E-02   5.403645E-02   6.643745E-02   8.168441E-02   1.004305E-01   1.234786E-01   1.518161E-01   1.866569E-01
CONSTANT    3.050000E-01                           #model_top                     
CONSTANT    2.800000E-01                           #botm layer 1                  
CONSTANT    2.550000E-01                           #botm layer 2                  
CONSTANT    2.300000E-01                           #botm layer 3                  
CONSTANT    2.050000E-01                           #botm layer 4                  
CONSTANT    1.800000E-01                           #botm layer 5                  
CONSTANT    1.748571E-01                           #botm layer 6                  
CONSTANT    1.697143E-01                           #botm layer 7                  
CONSTANT    1.645714E-01                           #botm layer 8                  
CONSTANT    1.594286E-01                           #botm layer 9                  
CONSTANT    1.542857E-01                           #botm layer 10                 
CONSTANT    1.491429E-01                           #botm layer 11                 
CONSTANT    1.440000E-01                           #botm layer 12                 
CONSTANT    1.388571E-01                           #botm layer 13                 
CONSTANT    1.337143E-01                           #botm layer 14                 
CONSTANT    1.285714E-01                           #botm layer 15                 
CONSTANT    1.234286E-01                           #botm layer 16                 
CONSTANT    1.182857E-01                           #botm layer 17                 
CONSTANT    1.131429E-01                           #botm layer 18                 
CONSTANT    1.080000E-01                           #botm layer 19                 
CONSTANT    1.028571E-01                           #botm layer 20                 
CONSTANT    9.771428E-02                           #botm layer 21                 
CONSTANT    9.257143E-02                           #botm layer 22                 
CONSTANT    8.742857E-02                           #botm layer 23                 
CONSTANT    8.228572E-02                           #botm layer 24                 
CONSTANT    7.714286E-02                           #botm layer 25                 
CONSTANT    7.200000E-02                           #botm layer 26                 
CONSTANT    6.685714E-02                           #botm layer 27                 
CONSTANT    6.171428E-02                           #botm layer 28                 
CONSTANT    5.657143E-02                           #botm layer 29                 
CONSTANT    5.142857E-02                           #botm layer 30                 
CONSTANT    4.628571E-02                           #botm layer 31                 
CONSTANT    4.114286E-02                           #botm layer 32                 
CONSTANT    3.600000E-02                           #botm layer 33                 
CONSTANT    3.085714E-02                           #botm layer 34                 
CONSTANT    2.571429E-02                           #botm layer 35                 
CONSTANT    2.057143E-02                           #botm layer 36                 
CONSTANT    1.542857E-02                           #botm layer 37                 
CONSTANT    1.028571E-02                           #botm layer 38                 
CONSTANT    5.142857E-03                           #botm layer 39                 
CONSTANT    0.000000E+00                           #botm layer 40                 
      1.000000             1  1.000000  SS 
