# Name file for MODFLOW-2005, generated by Flopy version 3.3.5.
#xll:0.0; yll:0.0; rotation:0.0; units:meters; lenuni:2; start_datetime:1-1-1970
LIST               2  ex.list
DIS               11  ex.dis
BAS6              13  ex.bas
PCG               27  ex.pcg
OC                14  ex.oc
BCF6              15  ex.bcf
DATA              52  ex.hds
DATA(BINARY)      53  ex.cbc REPLACE
NLFP              87  ex.nlfp
