# OC package for MODFLOW-2005 generated by Flopy 3.3.5
HEAD PRINT FORMAT   0
HEAD SAVE FORMAT (1000f10.4)          LABEL
HEAD SAVE UNIT    52
DRAWDOWN PRINT FORMAT   0

period 1 step 1 
  save head
  PRINT BUDGET
  SAVE BUDGET

