# PCG package for MODFLOW-2005 generated by Flopy 3.3.5
200 100 1 0
1e-07 1e-07 0.97 0 0 3 1.0 
